   869.86194       310.04238       13.29485
   12.50000       310.04238       13.29485       -16.23510       -2.91020
   37.50000       310.04238       13.29485       -16.21170       -2.92340
   62.50000       310.17779       13.17977       -16.02590       -3.02830
   87.50001       310.24433       13.14749       -15.69950       -3.21250
   112.50000       310.21392       13.14455       -15.25380       -3.46410
   137.50000       310.19600       13.10346       -14.84070       -3.69730
   162.50001       310.18039       13.11304       -14.36080       -3.96810
   187.50001       310.17005       13.12273       -13.86650       -4.24710
   212.50001       310.18076       13.24780       -13.41540       -4.50180
   237.50001       310.18800       13.15564       -12.90080       -4.79220
   262.50002       310.18218       13.11425       -12.44310       -5.05060
   287.50002       310.18136       13.14144       -11.99990       -5.30070
   312.50000       310.18501       13.12306       -11.58220       -5.52120
   337.50001       310.19855       13.17329       -11.30190       -5.64290
   362.50001       310.21301       13.23359       -10.94990       -5.79580
   387.50002       310.20319       13.16846       -10.59940       -5.94810
   412.50002       310.21393       13.14903       -10.23800       -6.10500
   437.50003       310.21717       13.15338       -9.87870       -6.26110
   462.50004       310.22534       13.11696       -9.57360       -6.39370
   487.50001       310.23715       13.14400       -9.22520       -6.54500
   512.50005       310.22912       13.08295       -8.88620       -6.69220
   537.50002       310.23190       13.06046       -8.50090       -6.85870
   562.50000       310.24069       13.18965       -8.36540       -6.80610
   587.50004       310.24606       13.12199       -8.23680       -6.75470
   612.50001       310.24039       13.12942       -8.12750       -6.71100
   637.50005       310.25211       13.12966       -8.01440       -6.66580
   662.50002       310.25506       13.11285       -7.90250       -6.62100
   687.50006       310.27146       13.07938       -7.80190       -6.58070
   712.50004       310.26985       13.01828       -7.68600       -6.53440
   737.50001       310.34676       12.82205       -7.56100       -6.48440
   762.50005       310.36233       12.79022       -7.44850       -6.43940
   787.50002       310.40503       12.67443       -7.34190       -6.39670
   812.50006       310.44698       12.60232       -7.25450       -6.36640
   837.50004       310.48855       12.53813       -7.17890       -6.34370
   862.50001       310.52011       12.47518       -7.10150       -6.32050
   887.50005       310.58156       12.43042       -7.02790       -6.29840
   912.50002       310.64746       12.35463       -6.95420       -6.27630
   937.50006       310.67562       12.30134       -6.89580       -6.25870
   962.50004       310.72978       12.25605       -6.83350       -6.24000
   987.50007       310.74824       12.31893       -6.77000       -6.22100
   1012.50005       310.75163       12.33782       -6.70920       -6.20280
   1037.50002       310.80715       12.28951       -6.64760       -6.18430
   1062.50000       310.78998       12.27005       -6.59180       -6.16760
   1087.50010       310.78177       12.23922       -6.53560       -6.15070
   1112.50007       310.80254       12.30190       -6.43890       -6.08090
   1137.50005       310.89415       12.18006       -6.28950       -5.93620
   1162.50002       311.00570       11.86793       -6.16670       -5.81730
   1187.50000       311.15301       11.57897       -6.02520       -5.68020
   1212.50010       311.27942       11.33175       -5.89480       -5.55390
   1237.50007       311.51659       10.60274       -5.72290       -5.38750
   1262.50005       311.88338       9.89928       -5.56880       -5.23820
   1287.50002       311.95875       9.78650       -5.43310       -5.10680
   1312.50012       312.19556       9.39052       -5.29010       -4.96830
   1337.50010       312.19615       9.41634       -5.14170       -4.82460
   1362.50007       312.22395       9.31227       -4.99670       -4.68420
   1387.50005       312.34235       8.96164       -4.84130       -4.53370
   1412.50002       312.65805       8.33319       -4.70030       -4.39720
   1437.50012       312.96696       7.98849       -4.47330       -4.32730
   1462.50010       313.09881       7.89147       -4.19860       -4.38660
   1487.50007       313.09814       7.89436       -3.90450       -4.45000
   1512.50005       313.13032       7.88661       -3.59800       -4.51600
   1537.50002       313.14846       7.89596       -3.34510       -4.57060
   1562.50012       313.25515       7.52310       -3.09510       -4.62450
   1587.50010       313.49660       7.03056       -2.85750       -4.67570
   1612.50007       313.65585       6.95019       -2.61970       -4.72700
   1637.50005       313.83382       6.68476       -2.38930       -4.77670
   1662.50002       313.98737       6.54041       -2.17680       -4.82250
   1687.50012       314.06263       6.41183       -1.91530       -4.87890
   1712.50010       314.16130       6.14157       -1.62970       -4.94050
   1737.50007       314.43698       5.80091       -1.35100       -4.93200
   1762.50005       314.61009       5.53899       -1.00010       -4.51620
   1787.50014       314.70660       5.44993       -0.70800       -4.17020
   1812.50012       314.76128       5.32634       -0.44880       -3.86310
   1837.50010       314.88128       5.21737       -0.14570       -3.50410
   1862.50007       315.21707       2.37966       0.10950       -3.20180
   1887.50005       315.53648       2.02304       0.33650       -2.93300
   1912.50014       315.56136       2.04068       0.59160       -2.63080
   1937.50012       315.56878       2.06243       0.82610       -2.35290
   1962.50010       315.60327       2.11784       1.10640       -2.02080
   1987.50007       315.62754       2.16355       1.30770       -1.91110
   2012.50005       315.63774       2.19283       1.50080       -1.91320
   2037.50014       315.63584       2.19364       1.70410       -1.91530
   2062.50000       315.69225       2.32250       1.93280       -1.91770
   2087.50010       315.68929       2.31207       2.15250       -1.92000
   2112.50019       315.71025       2.34106       2.35370       -1.92210
   2137.50005       315.74176       2.35202       2.59970       -1.92470
   2162.50014       315.76696       2.37262       2.80740       -1.92690
   2187.50000       315.78133       2.35904       3.01920       -1.92910
   2212.50010       315.80267       2.33719       3.09400       -1.87960
   2237.50019       315.84835       2.31290       3.08310       -1.78800
   2262.50005       315.90911       2.29948       3.07380       -1.70960
   2287.50014       316.01630       2.29350       3.06370       -1.62470
   2312.50000       316.05341       2.26502       3.05290       -1.53410
   2337.50010       316.11141       2.23388       3.04150       -1.43870
   2362.50019       316.15102       2.20559       3.03100       -1.35060
   2387.50005       316.18259       2.19910       3.02060       -1.26290
   2412.50014       316.22431       2.18095       3.00930       -1.16820
   2437.50000       316.35894       2.12393       3.02280       -1.08920
   2462.50010       316.43060       2.11775       3.13520       -1.08550
   2487.50019       316.45320       2.10834       3.27820       -1.08070
   2512.50005       316.45211       2.09273       3.40270       -1.07660
   2537.50014       316.46945       2.11539       3.51470       -1.07280
   2562.50024       316.47313       2.11651       3.63170       -1.06890
   2587.50010       316.44929       2.09726       3.77000       -1.06430
   2612.50019       316.48442       2.08656       3.91860       -1.05940
   2637.50005       316.47035       2.09798       4.10440       -1.05320
   2662.50014       316.47564       2.09742       4.28730       -1.05360
   2687.50024       316.47300       2.09359       4.46890       -1.06120
   2712.50010       316.47684       2.08722       4.64070       -1.06840
   2737.50019       316.48545       2.08457       4.79540       -1.07480
   2762.50005       316.47585       2.08475       4.94880       -1.08120
   2787.50014       316.46996       2.08221       5.06880       -1.08620
   2812.50024       316.48337       2.09718       5.21450       -1.09230
   2837.50010       316.48440       2.08030       5.39120       -1.09960
   2862.50019       316.51933       2.10429       5.52490       -0.92380
   2887.50005       316.60265       2.06131       5.62460       -0.78300
   2912.50014       316.51387       2.06556       5.72000       -0.64850
   2937.50024       316.48589       2.04130       5.81290       -0.51730
   2962.50010       316.49738       2.04395       5.90220       -0.39140
   2987.50019       316.48616       2.08671       6.00800       -0.24200
   3012.50005       316.49356       2.08017       6.11310       -0.09370
   3041.93568       316.50191       2.09157       6.20360       0.03400
   3080.24216       316.56891       2.06776       6.34680       0.19170
   3127.41947       316.60545       2.07375       6.52440       0.27380
   3183.46786       316.55803       2.08112       6.72440       0.36630
   3248.38734       316.55239       2.06789       7.00080       0.49410
   3322.17741       316.91591       1.64015       7.29010       0.47750
   3404.83904       317.01298       1.72286       7.57850       0.38280
   3496.37127       316.99038       1.73186       7.96450       0.27860
   3596.77458       317.07067       1.63106       8.52400       0.17180
   3706.04849       317.42190       1.26434       9.08730       0.01260
   3824.19372       317.59820       1.27340       9.62120       -0.23660
   3951.21002       317.66890       1.34760       9.72200       -0.24590
   4087.09669       317.65075       1.36883       9.66980       -0.09280
   4231.85492       317.87321       1.29080       10.10110       0.13720
   4385.48422       317.91253       1.21342       10.64660       0.45800
   4547.98412       318.43265       0.92483       11.22230       0.83860
   4719.35511       318.61977       0.89739       11.61900       1.16150
   4899.59669       319.42943       0.58145       12.05270       1.54730
   5088.71031       319.50121       0.52930       12.55150       1.97660
   5286.69405       319.26303       0.51447       12.89340       2.35280
   5493.54839       319.52773       0.52235       13.28690       2.81430
   5709.27477       320.11224       0.50214       13.61540       3.25180
   5933.87127       320.42944       0.45816       13.90220       3.70270
   6167.33932       320.90639       0.38915       14.28850       4.22840
   6409.67798       322.38232       0.36075       14.64210       4.81570
   6660.88772       323.49649       0.30637       15.00540       5.62050
   6920.96806       325.43277       0.35968       15.55540       6.87980
   7189.91947       327.05106       0.32994       15.92160       8.12280
   7467.74149       328.98632       0.29738       16.09530       9.19790
   7754.43602       329.89897       0.19695       16.33040       10.43900
   8050.00019       331.18811       0.19962       16.40000       11.73690
   8350.00038       333.67422       0.19516       16.39010       13.15020
   8650.00057       334.36923       0.15166       16.24040       14.66150
   8950.00076       334.83163       0.12567       15.87700       16.20760
   9250.00000       335.29500       0.09802       15.54330       17.65330
   9550.00019       337.25963       0.08579       15.13290       18.83120
   9850.00038       343.72786       0.07436       14.76670       19.65060
   10150.00057       344.48820       0.04831       14.37330       20.45590
   10450.00076       345.14852       0.04330       14.00880       21.19230
   10750.00095       345.07039       0.02868       13.54070       21.96790
   11050.00019       345.32803       0.02365       13.09360       22.70050
   11350.00038       345.71422       0.01729       12.59230       23.46480
   11650.00057       345.95826       0.01176       11.89060       24.38610
   11950.00076       346.55368       0.00852       11.12140       25.28310
   12250.00095       354.11323       0.01057       10.27870       26.20640
   12550.00019       359.02411       0.00022       9.22510       27.18490
   12850.00038       369.00339       0.00633       8.09940       28.10540
   13150.00057       373.11180       0.00558       6.97080       28.93470
   13450.00076       376.57954       0.00463       5.81220       29.70390
   13750.00095       383.05747       0.00398       4.33690       30.54580
   14050.00019       388.05358       0.00357       3.05360       31.20280
   14350.00038       392.42680       0.00392       1.81180       31.73270
   14650.00057       397.58915       0.00346       0.47990       32.23050
   14950.00076       403.83023       0.00388       -1.36070       32.83020
   15250.00095       406.16434       0.00336       -3.58010       33.30680
   15550.00114       407.01977       0.00334       -3.59370       33.30940
   15850.0       407.11531       0.00319       -3.60730       33.31210
